ITQ_AFN941_native_2ITW
     RDKit          3D

 63 70  0  0  0  0  0  0  0  0999 V2000
  -49.1870    0.9030  -15.8850 C   0  0  0  0  0  0  0  0  0  0  0  0
  -53.0440    1.8530  -22.0610 N   0  0  0  0  0  0  0  0  0  0  0  0
  -50.4540    1.2400  -15.0640 C   0  0  0  0  0  0  0  0  0  0  0  0
  -47.9820   -0.9280  -21.1690 N   0  0  0  0  0  0  0  0  0  0  0  0
  -51.2990    2.3670  -15.6950 C   0  0  0  0  0  0  0  0  0  0  0  0
  -48.7950    0.1360  -18.3660 N   0  0  0  0  0  0  0  0  0  0  0  0
  -51.7140    2.1050  -17.1650 C   0  0  0  0  0  0  0  0  0  0  0  0
  -46.7120   -4.1820  -17.5360 N   0  0  0  0  0  0  0  0  0  0  0  0
  -46.6130   -0.3660  -19.2160 O   0  0  0  0  0  0  0  0  0  0  0  0
  -50.6550    1.3170  -17.9750 C   0  0  0  0  0  0  0  0  0  0  0  0
  -53.4130    2.5070  -19.9780 O   0  0  0  0  0  0  0  0  0  0  0  0
  -50.6450    1.0130  -19.3520 C   0  0  0  0  0  0  0  0  0  0  0  0
  -47.9910   -3.7300  -20.2470 O   0  0  0  0  0  0  0  0  0  0  0  0
  -51.4730    1.2610  -20.4950 C   0  0  0  0  0  0  0  0  0  0  0  0
  -52.6930    1.9160  -20.7790 C   0  0  0  0  0  0  0  0  0  0  0  0
  -52.0500    1.1080  -22.8120 C   0  0  0  0  0  0  0  0  0  0  0  0
  -51.0500    0.7600  -21.7320 C   0  0  0  0  0  0  0  0  0  0  0  0
  -49.8690    0.0310  -21.8860 C   0  0  0  0  0  0  0  0  0  0  0  0
  -49.2600   -0.5670  -22.9860 C   0  0  0  0  0  0  0  0  0  0  0  0
  -49.6330   -0.6400  -24.3410 C   0  0  0  0  0  0  0  0  0  0  0  0
  -48.8310   -1.3060  -25.2610 C   0  0  0  0  0  0  0  0  0  0  0  0
  -47.6630   -1.8980  -24.7990 C   0  0  0  0  0  0  0  0  0  0  0  0
  -47.2930   -1.8240  -23.4550 C   0  0  0  0  0  0  0  0  0  0  0  0
  -48.0830   -1.1550  -22.5120 C   0  0  0  0  0  0  0  0  0  0  0  0
  -49.0590   -0.2080  -20.7830 C   0  0  0  0  0  0  0  0  0  0  0  0
  -49.4540    0.2830  -19.5250 C   0  0  0  0  0  0  0  0  0  0  0  0
  -49.4990    0.7630  -17.3930 C   0  0  0  0  0  0  0  0  0  0  0  0
  -46.7730   -1.3960  -20.2550 C   0  0  1  0  0  0  0  0  0  0  0  0
  -46.8540   -2.8750  -19.6940 C   0  0  1  0  0  0  0  0  0  0  0  0
  -46.5900   -2.8280  -18.1320 C   0  0  1  0  0  0  0  0  0  0  0  0
  -47.4230   -1.7300  -17.3690 C   0  0  0  0  0  0  0  0  0  0  0  0
  -47.6160   -0.5380  -18.3290 C   0  0  2  0  0  0  0  0  0  0  0  0
  -45.4490   -1.3370  -21.0300 C   0  0  0  0  0  0  0  0  0  0  0  0
  -47.6530   -4.3620  -21.5510 C   0  0  0  0  0  0  0  0  0  0  0  0
  -45.6700   -5.1130  -18.0520 C   0  0  0  0  0  0  0  0  0  0  0  0
  -48.4494    1.7074  -15.7474 H   0  0  0  0  0  0  0  0  0  0  0  0
  -48.7941   -0.0600  -15.5268 H   0  0  0  0  0  0  0  0  0  0  0  0
  -51.0752    0.3352  -14.9907 H   0  0  0  0  0  0  0  0  0  0  0  0
  -50.1222    1.5913  -14.0758 H   0  0  0  0  0  0  0  0  0  0  0  0
  -52.2131    2.4894  -15.0954 H   0  0  0  0  0  0  0  0  0  0  0  0
  -50.6684    3.2683  -15.7012 H   0  0  0  0  0  0  0  0  0  0  0  0
  -52.6513    1.5293  -17.1648 H   0  0  0  0  0  0  0  0  0  0  0  0
  -51.8271    3.0863  -17.6490 H   0  0  0  0  0  0  0  0  0  0  0  0
  -46.6133   -4.1057  -16.5136 H   0  0  0  0  0  0  0  0  0  0  0  0
  -52.0295    0.8616  -23.8838 H   0  0  0  0  0  0  0  0  0  0  0  0
  -50.5676   -0.1658  -24.6753 H   0  0  0  0  0  0  0  0  0  0  0  0
  -49.1132   -1.3622  -26.3227 H   0  0  0  0  0  0  0  0  0  0  0  0
  -47.0158   -2.4365  -25.5069 H   0  0  0  0  0  0  0  0  0  0  0  0
  -46.3580   -2.3029  -23.1287 H   0  0  0  0  0  0  0  0  0  0  0  0
  -46.0443   -3.4943  -20.1073 H   0  0  0  0  0  0  0  0  0  0  0  0
  -45.5485   -2.5001  -17.9984 H   0  0  0  0  0  0  0  0  0  0  0  0
  -48.4018   -2.1380  -17.0765 H   0  0  0  0  0  0  0  0  0  0  0  0
  -46.8962   -1.4101  -16.4579 H   0  0  0  0  0  0  0  0  0  0  0  0
  -47.6178    0.4778  -17.9069 H   0  0  0  0  0  0  0  0  0  0  0  0
  -44.6098   -1.2996  -20.3198 H   0  0  0  0  0  0  0  0  0  0  0  0
  -45.3543   -2.2318  -21.6627 H   0  0  0  0  0  0  0  0  0  0  0  0
  -45.4343   -0.4373  -21.6627 H   0  0  0  0  0  0  0  0  0  0  0  0
  -47.1411   -5.3192  -21.3728 H   0  0  0  0  0  0  0  0  0  0  0  0
  -48.5760   -4.5406  -22.1221 H   0  0  0  0  0  0  0  0  0  0  0  0
  -46.9920   -3.6934  -22.1221 H   0  0  0  0  0  0  0  0  0  0  0  0
  -45.1456   -5.5815  -17.2061 H   0  0  0  0  0  0  0  0  0  0  0  0
  -46.1459   -5.8922  -18.6655 H   0  0  0  0  0  0  0  0  0  0  0  0
  -44.9490   -4.5527  -18.6655 H   0  0  0  0  0  0  0  0  0  0  0  0
  1  3  1  0
  1 27  1  0
  2 15  1  0
  2 16  2  0
  3  5  1  0
  4 24  1  0
  4 25  1  0
  4 28  1  0
  5  7  1  0
  6 26  1  0
  6 27  1  0
  6 32  1  0
  7 10  1  0
  8 30  1  0
  8 35  1  0
  9 28  1  0
  9 32  1  0
 10 12  1  0
 10 27  2  0
 11 15  2  0
 12 14  2  0
 12 26  1  0
 13 29  1  0
 13 34  1  0
 14 15  1  0
 14 17  1  0
 16 17  1  0
 17 18  2  0
 18 19  1  0
 18 25  1  0
 19 20  2  0
 19 24  1  0
 20 21  1  0
 21 22  2  0
 22 23  1  0
 23 24  2  0
 25 26  2  0
 28 29  1  0
 28 33  1  6
 29 30  1  0
 30 31  1  0
 31 32  1  0
  1 36  1  0
  1 37  1  0
  3 38  1  0
  3 39  1  0
  5 40  1  0
  5 41  1  0
  7 42  1  0
  7 43  1  0
  8 44  1  0
 16 45  1  0
 20 46  1  0
 21 47  1  0
 22 48  1  0
 23 49  1  0
 29 50  1  6
 30 51  1  6
 31 52  1  0
 31 53  1  0
 32 54  1  1
 33 55  1  0
 33 56  1  0
 33 57  1  0
 34 58  1  0
 34 59  1  0
 34 60  1  0
 35 61  1  0
 35 62  1  0
 35 63  1  0
M  END

$$$$
