C001_Quercetin
     RDKit          3D

 32 34  0  0  0  0  0  0  0  0999 V2000
    2.7162    1.0941    0.6445 C   0  0  0  0  0  0  0  0  0  0  0  0
    4.0966    0.8726    0.6023 C   0  0  0  0  0  0  0  0  0  0  0  0
    4.5999   -0.1951   -0.1348 C   0  0  0  0  0  0  0  0  0  0  0  0
    3.7320   -1.0397   -0.8249 C   0  0  0  0  0  0  0  0  0  0  0  0
    2.3545   -0.8197   -0.7852 C   0  0  0  0  0  0  0  0  0  0  0  0
    1.8293    0.2589   -0.0538 C   0  0  0  0  0  0  0  0  0  0  0  0
    0.3654    0.4640    0.0005 C   0  0  0  0  0  0  0  0  0  0  0  0
   -0.2195    1.6625   -0.1824 C   0  0  0  0  0  0  0  0  0  0  0  0
   -1.6968    1.7453   -0.1189 C   0  0  0  0  0  0  0  0  0  0  0  0
   -2.2699    2.8201   -0.2835 O   0  0  0  0  0  0  0  0  0  0  0  0
   -2.4336    0.5080    0.1435 C   0  0  0  0  0  0  0  0  0  0  0  0
   -3.8296    0.4863    0.2272 C   0  0  0  0  0  0  0  0  0  0  0  0
   -4.4980   -0.7100    0.4771 C   0  0  0  0  0  0  0  0  0  0  0  0
   -3.7586   -1.8783    0.6412 C   0  0  0  0  0  0  0  0  0  0  0  0
   -2.3687   -1.8668    0.5592 C   0  0  0  0  0  0  0  0  0  0  0  0
   -1.7052   -0.6663    0.3088 C   0  0  0  0  0  0  0  0  0  0  0  0
   -0.3364   -0.7128    0.2357 O   0  0  0  0  0  0  0  0  0  0  0  0
   -4.3671   -3.0733    0.8868 O   0  0  0  0  0  0  0  0  0  0  0  0
   -4.6045    1.6038    0.0731 O   0  0  0  0  0  0  0  0  0  0  0  0
    0.4660    2.8338   -0.4458 O   0  0  0  0  0  0  0  0  0  0  0  0
    4.2443   -2.0862   -1.5403 O   0  0  0  0  0  0  0  0  0  0  0  0
    5.9453   -0.4265   -0.1866 O   0  0  0  0  0  0  0  0  0  0  0  0
    2.3388    1.9294    1.2311 H   0  0  0  0  0  0  0  0  0  0  0  0
    4.7558    1.5393    1.1490 H   0  0  0  0  0  0  0  0  0  0  0  0
    1.6827   -1.4807   -1.3254 H   0  0  0  0  0  0  0  0  0  0  0  0
   -5.5818   -0.7107    0.5391 H   0  0  0  0  0  0  0  0  0  0  0  0
   -1.8096   -2.7891    0.6915 H   0  0  0  0  0  0  0  0  0  0  0  0
   -5.3291   -2.9361    0.9242 H   0  0  0  0  0  0  0  0  0  0  0  0
   -4.0149    2.3715   -0.0996 H   0  0  0  0  0  0  0  0  0  0  0  0
   -0.2249    3.5201   -0.5591 H   0  0  0  0  0  0  0  0  0  0  0  0
    3.5178   -2.5736   -1.9570 H   0  0  0  0  0  0  0  0  0  0  0  0
    6.4038    0.2551    0.3276 H   0  0  0  0  0  0  0  0  0  0  0  0
  1  2  2  0
  2  3  1  0
  3  4  2  0
  4  5  1  0
  5  6  2  0
  6  7  1  0
  7  8  2  0
  8  9  1  0
  9 10  2  0
  9 11  1  0
 11 12  2  0
 12 13  1  0
 13 14  2  0
 14 15  1  0
 15 16  2  0
 16 17  1  0
 14 18  1  0
 12 19  1  0
  8 20  1  0
  4 21  1  0
  3 22  1  0
  6  1  1  0
 17  7  1  0
 16 11  1  0
  1 23  1  0
  2 24  1  0
  5 25  1  0
 13 26  1  0
 15 27  1  0
 18 28  1  0
 19 29  1  0
 20 30  1  0
 21 31  1  0
 22 32  1  0
M  END

$$$$
