C002_Luteolin
     RDKit          3D

 31 33  0  0  0  0  0  0  0  0999 V2000
    2.3351   -0.8639    0.5345 C   0  0  0  0  0  0  0  0  0  0  0  0
    3.7232   -1.0267    0.4529 C   0  0  0  0  0  0  0  0  0  0  0  0
    4.4906   -0.0097   -0.0971 C   0  0  0  0  0  0  0  0  0  0  0  0
    3.8835    1.1527   -0.5625 C   0  0  0  0  0  0  0  0  0  0  0  0
    2.5069    1.3223   -0.4850 C   0  0  0  0  0  0  0  0  0  0  0  0
    1.7113    0.3119    0.0754 C   0  0  0  0  0  0  0  0  0  0  0  0
    0.2448    0.4504    0.1670 C   0  0  0  0  0  0  0  0  0  0  0  0
   -0.3294    1.5904    0.5784 C   0  0  0  0  0  0  0  0  0  0  0  0
   -1.7951    1.6613    0.6599 C   0  0  0  0  0  0  0  0  0  0  0  0
   -2.3704    2.6779    1.0322 O   0  0  0  0  0  0  0  0  0  0  0  0
   -2.5448    0.4598    0.2758 C   0  0  0  0  0  0  0  0  0  0  0  0
   -3.9421    0.4231    0.3097 C   0  0  0  0  0  0  0  0  0  0  0  0
   -4.6176   -0.7355   -0.0633 C   0  0  0  0  0  0  0  0  0  0  0  0
   -3.8917   -1.8522   -0.4693 C   0  0  0  0  0  0  0  0  0  0  0  0
   -2.4995   -1.8291   -0.5061 C   0  0  0  0  0  0  0  0  0  0  0  0
   -1.8275   -0.6645   -0.1299 C   0  0  0  0  0  0  0  0  0  0  0  0
   -0.4555   -0.6950   -0.1806 O   0  0  0  0  0  0  0  0  0  0  0  0
   -4.5912   -2.9663   -0.8282 O   0  0  0  0  0  0  0  0  0  0  0  0
   -4.7060    1.4897    0.6995 O   0  0  0  0  0  0  0  0  0  0  0  0
    4.6445    2.1470   -1.1083 O   0  0  0  0  0  0  0  0  0  0  0  0
    5.8496   -0.1051   -0.2062 O   0  0  0  0  0  0  0  0  0  0  0  0
    1.7386   -1.6641    0.9695 H   0  0  0  0  0  0  0  0  0  0  0  0
    4.1744   -1.9428    0.8200 H   0  0  0  0  0  0  0  0  0  0  0  0
    2.0700    2.2377   -0.8746 H   0  0  0  0  0  0  0  0  0  0  0  0
    0.2196    2.4766    0.8698 H   0  0  0  0  0  0  0  0  0  0  0  0
   -5.7033   -0.7669   -0.0386 H   0  0  0  0  0  0  0  0  0  0  0  0
   -1.9305   -2.6977   -0.8220 H   0  0  0  0  0  0  0  0  0  0  0  0
   -3.9707   -3.6604   -1.1052 H   0  0  0  0  0  0  0  0  0  0  0  0
   -4.1037    2.2320    0.9324 H   0  0  0  0  0  0  0  0  0  0  0  0
    5.5618    1.8108   -1.0594 H   0  0  0  0  0  0  0  0  0  0  0  0
    6.1251   -0.9636    0.1591 H   0  0  0  0  0  0  0  0  0  0  0  0
  1  2  2  0
  2  3  1  0
  3  4  2  0
  4  5  1  0
  5  6  2  0
  6  7  1  0
  7  8  2  0
  8  9  1  0
  9 10  2  0
  9 11  1  0
 11 12  2  0
 12 13  1  0
 13 14  2  0
 14 15  1  0
 15 16  2  0
 16 17  1  0
 14 18  1  0
 12 19  1  0
  4 20  1  0
  3 21  1  0
  6  1  1  0
 17  7  1  0
 16 11  1  0
  1 22  1  0
  2 23  1  0
  5 24  1  0
  8 25  1  0
 13 26  1  0
 15 27  1  0
 18 28  1  0
 19 29  1  0
 20 30  1  0
 21 31  1  0
M  END

$$$$
