C003_Baicalein
     RDKit          3D

 30 32  0  0  0  0  0  0  0  0999 V2000
   -5.1045   -0.5061    0.6844 C   0  0  0  0  0  0  0  0  0  0  0  0
   -4.1540   -0.5392    1.7017 C   0  0  0  0  0  0  0  0  0  0  0  0
   -2.8098   -0.2915    1.4117 C   0  0  0  0  0  0  0  0  0  0  0  0
   -2.3993   -0.0008    0.1018 C   0  0  0  0  0  0  0  0  0  0  0  0
   -3.3678    0.0188   -0.9139 C   0  0  0  0  0  0  0  0  0  0  0  0
   -4.7121   -0.2296   -0.6232 C   0  0  0  0  0  0  0  0  0  0  0  0
   -0.9731    0.2493   -0.1850 C   0  0  0  0  0  0  0  0  0  0  0  0
   -0.5831    1.2428   -0.9973 C   0  0  0  0  0  0  0  0  0  0  0  0
    0.8523    1.4466   -1.2339 C   0  0  0  0  0  0  0  0  0  0  0  0
    1.2685    2.3334   -1.9715 O   0  0  0  0  0  0  0  0  0  0  0  0
    1.7787    0.5406   -0.5493 C   0  0  0  0  0  0  0  0  0  0  0  0
    1.2464   -0.4505    0.2788 C   0  0  0  0  0  0  0  0  0  0  0  0
   -0.1037   -0.6068    0.4747 O   0  0  0  0  0  0  0  0  0  0  0  0
    2.0920   -1.3357    0.9521 C   0  0  0  0  0  0  0  0  0  0  0  0
    3.4660   -1.2157    0.7862 C   0  0  0  0  0  0  0  0  0  0  0  0
    3.9977   -0.2293   -0.0380 C   0  0  0  0  0  0  0  0  0  0  0  0
    3.1615    0.6541   -0.7105 C   0  0  0  0  0  0  0  0  0  0  0  0
    3.7612    1.5988   -1.5039 O   0  0  0  0  0  0  0  0  0  0  0  0
    5.3567   -0.1420   -0.1765 O   0  0  0  0  0  0  0  0  0  0  0  0
    4.2964   -2.0772    1.4418 O   0  0  0  0  0  0  0  0  0  0  0  0
   -6.1500   -0.7008    0.9098 H   0  0  0  0  0  0  0  0  0  0  0  0
   -4.4568   -0.7595    2.7223 H   0  0  0  0  0  0  0  0  0  0  0  0
   -2.0844   -0.3224    2.2223 H   0  0  0  0  0  0  0  0  0  0  0  0
   -3.0876    0.2136   -1.9466 H   0  0  0  0  0  0  0  0  0  0  0  0
   -5.4520   -0.2125   -1.4197 H   0  0  0  0  0  0  0  0  0  0  0  0
   -1.2628    1.9245   -1.4918 H   0  0  0  0  0  0  0  0  0  0  0  0
    1.6865   -2.1096    1.5970 H   0  0  0  0  0  0  0  0  0  0  0  0
    3.0467    2.1452   -1.9084 H   0  0  0  0  0  0  0  0  0  0  0  0
    5.4911    0.6099   -0.7915 H   0  0  0  0  0  0  0  0  0  0  0  0
    5.1993   -1.8068    1.1762 H   0  0  0  0  0  0  0  0  0  0  0  0
  1  2  2  0
  2  3  1  0
  3  4  2  0
  4  5  1  0
  5  6  2  0
  4  7  1  0
  7  8  2  0
  8  9  1  0
  9 10  2  0
  9 11  1  0
 11 12  2  0
 12 13  1  0
 12 14  1  0
 14 15  2  0
 15 16  1  0
 16 17  2  0
 17 18  1  0
 16 19  1  0
 15 20  1  0
  6  1  1  0
 13  7  1  0
 17 11  1  0
  1 21  1  0
  2 22  1  0
  3 23  1  0
  5 24  1  0
  6 25  1  0
  8 26  1  0
 14 27  1  0
 18 28  1  0
 19 29  1  0
 20 30  1  0
M  END

$$$$
